/*--------------------------------*- C++ -*----------------------------------*\
| =========                 |                                                 |
| \\      /  F ield         | OpenFOAM: The Open Source CFD Toolbox           |
|  \\    /   O peration     | Version:  v2212                                 |
|   \\  /    A nd           | Website:  www.openfoam.com                      |
|    \\/     M anipulation  |                                                 |
\*---------------------------------------------------------------------------*/
FoamFile
{
    version     2.0;
    format      ascii;
    class       dictionary;
    object      blockMeshDict;
}
// * * * * * * * * * * * * * * * * * * * * * * * * * * * * * * * * * * * * * //

scale   1e-6;

vertices
(
    (0 0 0)
    (100 0 0)
    (100 100 0)
    (0 100 0)
    (0 0 300)
    (100 0 300)
    (100 100 300)
    (0 100 300)
);

blocks
(
    hex (0 1 2 3 4 5 6 7) (20 20 200) simpleGrading (1 1 1)
);

edges
(
);

boundary
(
    Walls
    {
        type wall;
        faces
        (
            (3 7 6 2)
            (1 5 4 0)
            (2 6 5 1)
            (0 4 7 3)
        );
    }
    HotWall
    {
        type wall;
        faces
        (
            (0 3 2 1)
        );
    }
    ColdWall
    {
        type wall;
        faces
        (
            (4 5 6 7)
        );
    }
);


// ************************************************************************* //
