/*--------------------------------*- C++ -*----------------------------------*\
| =========                 |                                                 |
| \\      /  F ield         | OpenFOAM: The Open Source CFD Toolbox           |
|  \\    /   O peration     | Version:  v2212                                 |
|   \\  /    A nd           | Website:  www.openfoam.com                      |
|    \\/     M anipulation  |                                                 |
\*---------------------------------------------------------------------------*/
FoamFile
{
    version     2.0;
    format      ascii;
    class       volScalarField;
    object      DT;
}
// * * * * * * * * * * * * * * * * * * * * * * * * * * * * * * * * * * * * * //

dimensions      [0 2 -1 0 0 0 0];

internalField   uniform 4e-08;

boundaryField
{
    Walls
    {
        type        fixedValue;
        value       uniform 4e-08;
    }

    HotWall
    {
        type        fixedValue;
        value       uniform 4e-08;
    }

    ColdWall
    {
        type        fixedValue;
        value       uniform 4e-08;
    }
}


// ************************************************************************* //